* XSpice netlist created from SPICE and liberty sources by spi2xspice.py
*SPICE netlist created from verilog structural netlist module i2c_master_top by vlog2Spice (qflow)
** Start of included library /home/oleg/RTLtoGDS/tech/osu035/osu035_stdcells.sp
** End of included library /home/oleg/RTLtoGDS/tech/osu035/osu035_stdcells.sp
.subckt i2c_master_top a_vdd a_gnd a_arst_i a_scl_pad_i a_scl_pad_o a_scl_padoen_o a_sda_pad_i a_sda_pad_o a_sda_padoen_o a_wb_ack_o a_wb_adr_i_0_ a_wb_adr_i_1_ a_wb_adr_i_2_ a_wb_clk_i a_wb_cyc_i a_wb_dat_i_0_ a_wb_dat_i_1_ a_wb_dat_i_2_ a_wb_dat_i_3_ a_wb_dat_i_4_ a_wb_dat_i_5_ a_wb_dat_i_6_ a_wb_dat_i_7_ a_wb_dat_o_0_ a_wb_dat_o_1_ a_wb_dat_o_2_ a_wb_dat_o_3_ a_wb_dat_o_4_ a_wb_dat_o_5_ a_wb_dat_o_6_ a_wb_dat_o_7_ a_wb_inta_o a_wb_rst_i a_wb_stb_i a_wb_we_i
ABUFX2_insert28 [arst_i] arst_i_bF$buf0 d_lut_BUFX2
ABUFX2_insert27 [arst_i] arst_i_bF$buf1 d_lut_BUFX2
ABUFX2_insert26 [arst_i] arst_i_bF$buf2 d_lut_BUFX2
ABUFX2_insert25 [arst_i] arst_i_bF$buf3 d_lut_BUFX2
ABUFX2_insert24 [arst_i] arst_i_bF$buf4 d_lut_BUFX2
ABUFX2_insert23 [arst_i] arst_i_bF$buf5 d_lut_BUFX2
ABUFX2_insert22 [arst_i] arst_i_bF$buf6 d_lut_BUFX2
ABUFX2_insert21 [arst_i] arst_i_bF$buf7 d_lut_BUFX2
ABUFX2_insert20 [arst_i] arst_i_bF$buf8 d_lut_BUFX2
ABUFX2_insert19 [arst_i] arst_i_bF$buf9 d_lut_BUFX2
ABUFX2_insert18 [arst_i] arst_i_bF$buf10 d_lut_BUFX2
ACLKBUF1_insert17 [wb_clk_i] wb_clk_i_bF$buf0 d_lut_CLKBUF1
ACLKBUF1_insert16 [wb_clk_i] wb_clk_i_bF$buf1 d_lut_CLKBUF1
ACLKBUF1_insert15 [wb_clk_i] wb_clk_i_bF$buf2 d_lut_CLKBUF1
ACLKBUF1_insert14 [wb_clk_i] wb_clk_i_bF$buf3 d_lut_CLKBUF1
ACLKBUF1_insert13 [wb_clk_i] wb_clk_i_bF$buf4 d_lut_CLKBUF1
ACLKBUF1_insert12 [wb_clk_i] wb_clk_i_bF$buf5 d_lut_CLKBUF1
ACLKBUF1_insert11 [wb_clk_i] wb_clk_i_bF$buf6 d_lut_CLKBUF1
ACLKBUF1_insert10 [wb_clk_i] wb_clk_i_bF$buf7 d_lut_CLKBUF1
ACLKBUF1_insert9 [wb_clk_i] wb_clk_i_bF$buf8 d_lut_CLKBUF1
ACLKBUF1_insert8 [wb_clk_i] wb_clk_i_bF$buf9 d_lut_CLKBUF1
ACLKBUF1_insert7 [wb_clk_i] wb_clk_i_bF$buf10 d_lut_CLKBUF1
ACLKBUF1_insert6 [wb_clk_i] wb_clk_i_bF$buf11 d_lut_CLKBUF1
ABUFX2_insert5 [wb_rst_i] wb_rst_i_bF$buf0 d_lut_BUFX2
ABUFX2_insert4 [wb_rst_i] wb_rst_i_bF$buf1 d_lut_BUFX2
ABUFX2_insert3 [wb_rst_i] wb_rst_i_bF$buf2 d_lut_BUFX2
ABUFX2_insert2 [wb_rst_i] wb_rst_i_bF$buf3 d_lut_BUFX2
ABUFX2_insert1 [wb_rst_i] wb_rst_i_bF$buf4 d_lut_BUFX2
ABUFX2_insert0 [wb_rst_i] wb_rst_i_bF$buf5 d_lut_BUFX2
A_1000_ [wb_rst_i_bF$buf5 wb_dat_i_4_ _199_] _207_ d_lut_OAI21X1
A_1001_ [_206_ _199_ _207_] _41_ d_lut_OAI21X1
A_1002_ [wb_rst_i_bF$buf4 wb_dat_i_5_ _199_] _208_ d_lut_OAI21X1
A_1003_ [_105_ _199_ _208_] _42_ d_lut_OAI21X1
A_1004_ [wb_rst_i_bF$buf3 wb_dat_i_6_ _199_] _209_ d_lut_OAI21X1
A_1005_ [_120_ _199_ _209_] _43_ d_lut_OAI21X1
A_1006_ [wb_rst_i_bF$buf2 wb_dat_i_7_ _199_] _210_ d_lut_OAI21X1
A_1007_ [_128_ _199_ _210_] _44_ d_lut_OAI21X1
A_1008_ [_156_ _139_] _211_ d_lut_NAND2X1
A_1009_ [_59_ _139_ _211_] _45_ d_lut_OAI21X1
A_1010_ _789__0_ wb_clk_i_bF$buf11 NULL NULL _787__0_ NULL ddflop
A_1011_ _789__1_ wb_clk_i_bF$buf10 NULL NULL _787__1_ NULL ddflop
A_1012_ _789__2_ wb_clk_i_bF$buf9 NULL NULL _787__2_ NULL ddflop
A_1013_ _789__3_ wb_clk_i_bF$buf8 NULL NULL _787__3_ NULL ddflop
A_1014_ _789__4_ wb_clk_i_bF$buf7 NULL NULL _787__4_ NULL ddflop
A_1015_ _789__5_ wb_clk_i_bF$buf6 NULL NULL _787__5_ NULL ddflop
A_1016_ _789__6_ wb_clk_i_bF$buf5 NULL NULL _787__6_ NULL ddflop
A_1017_ _789__7_ wb_clk_i_bF$buf4 NULL NULL _787__7_ NULL ddflop
A_1018_ _4_ wb_clk_i_bF$buf3 NULL NULL _786_ NULL ddflop
A_1019_ _5_ wb_clk_i_bF$buf2 ~vdd ~arst_i_bF$buf10 _788_ NULL ddflop
A_1020_ _2_ wb_clk_i_bF$buf1 ~vdd ~arst_i_bF$buf9 rxack NULL ddflop
A_1021_ _3_ wb_clk_i_bF$buf0 ~vdd ~arst_i_bF$buf8 tip NULL ddflop
A_1022_ _1_ wb_clk_i_bF$buf11 ~vdd ~arst_i_bF$buf7 irq_flag NULL ddflop
A_1023_ _0_ wb_clk_i_bF$buf10 ~vdd ~arst_i_bF$buf6 al NULL ddflop
A_1024_ _6_ wb_clk_i_bF$buf9 ~vdd ~arst_i_bF$buf5 ctr_1_ NULL ddflop
A_1025_ _7_ wb_clk_i_bF$buf8 ~vdd ~arst_i_bF$buf4 ctr_2_ NULL ddflop
A_1026_ _8_ wb_clk_i_bF$buf7 ~vdd ~arst_i_bF$buf3 ctr_3_ NULL ddflop
A_1027_ _9_ wb_clk_i_bF$buf6 ~vdd ~arst_i_bF$buf2 ctr_4_ NULL ddflop
A_1028_ _10_ wb_clk_i_bF$buf5 ~vdd ~arst_i_bF$buf1 ctr_5_ NULL ddflop
A_1029_ _11_ wb_clk_i_bF$buf4 ~vdd ~arst_i_bF$buf0 ien NULL ddflop
A_1030_ _12_ wb_clk_i_bF$buf3 ~vdd ~arst_i_bF$buf10 \byte_controller.bit_controller.ena\ NULL ddflop
A_1031_ _13_ wb_clk_i_bF$buf2 ~vdd ~arst_i_bF$buf9 \byte_controller.din\_0_ NULL ddflop
A_1032_ _14_ wb_clk_i_bF$buf1 ~vdd ~arst_i_bF$buf8 \byte_controller.din\_1_ NULL ddflop
A_1033_ _15_ wb_clk_i_bF$buf0 ~vdd ~arst_i_bF$buf7 \byte_controller.din\_2_ NULL ddflop
A_1034_ _16_ wb_clk_i_bF$buf11 ~vdd ~arst_i_bF$buf6 \byte_controller.din\_3_ NULL ddflop
A_1035_ _17_ wb_clk_i_bF$buf10 ~vdd ~arst_i_bF$buf5 \byte_controller.din\_4_ NULL ddflop
A_1036_ _18_ wb_clk_i_bF$buf9 ~vdd ~arst_i_bF$buf4 \byte_controller.din\_5_ NULL ddflop
A_1037_ _19_ wb_clk_i_bF$buf8 ~vdd ~arst_i_bF$buf3 \byte_controller.din\_6_ NULL ddflop
A_1038_ _20_ wb_clk_i_bF$buf7 ~vdd ~arst_i_bF$buf2 \byte_controller.din\_7_ NULL ddflop
A_1039_ _21_ wb_clk_i_bF$buf6 ~vdd ~arst_i_bF$buf1 iack NULL ddflop
A_1040_ _22_ wb_clk_i_bF$buf5 ~vdd ~arst_i_bF$buf0 cr_1_ NULL ddflop
A_1041_ _23_ wb_clk_i_bF$buf4 ~vdd ~arst_i_bF$buf10 cr_2_ NULL ddflop
A_1042_ _24_ wb_clk_i_bF$buf3 ~vdd ~arst_i_bF$buf9 \byte_controller.write\ NULL ddflop
A_1043_ _25_ wb_clk_i_bF$buf2 ~vdd ~arst_i_bF$buf8 \byte_controller.read\ NULL ddflop
A_1044_ _26_ wb_clk_i_bF$buf1 ~vdd ~arst_i_bF$buf7 \byte_controller.stop\ NULL ddflop
A_1045_ _27_ wb_clk_i_bF$buf0 ~vdd ~arst_i_bF$buf6 \byte_controller.start\ NULL ddflop
A_1046_ _28_ wb_clk_i_bF$buf11 ~vdd ~arst_i_bF$buf5 \byte_controller.ack_in\ NULL ddflop
A_1047_ _29_ wb_clk_i_bF$buf10 ~arst_i_bF$buf4 ~vdd \byte_controller.bit_controller.clk_cnt\_0_ NULL ddflop
A_1048_ _30_ wb_clk_i_bF$buf9 ~arst_i_bF$buf3 ~vdd \byte_controller.bit_controller.clk_cnt\_1_ NULL ddflop
A_1049_ _31_ wb_clk_i_bF$buf8 ~arst_i_bF$buf2 ~vdd \byte_controller.bit_controller.clk_cnt\_2_ NULL ddflop
A_1050_ _32_ wb_clk_i_bF$buf7 ~arst_i_bF$buf1 ~vdd \byte_controller.bit_controller.clk_cnt\_3_ NULL ddflop
A_1051_ _33_ wb_clk_i_bF$buf6 ~arst_i_bF$buf0 ~vdd \byte_controller.bit_controller.clk_cnt\_4_ NULL ddflop
A_1052_ _34_ wb_clk_i_bF$buf5 ~arst_i_bF$buf10 ~vdd \byte_controller.bit_controller.clk_cnt\_5_ NULL ddflop
A_1053_ _35_ wb_clk_i_bF$buf4 ~arst_i_bF$buf9 ~vdd \byte_controller.bit_controller.clk_cnt\_6_ NULL ddflop
A_1054_ _36_ wb_clk_i_bF$buf3 ~arst_i_bF$buf8 ~vdd \byte_controller.bit_controller.clk_cnt\_7_ NULL ddflop
A_1055_ _37_ wb_clk_i_bF$buf2 ~arst_i_bF$buf7 ~vdd \byte_controller.bit_controller.clk_cnt\_8_ NULL ddflop
A_1056_ _38_ wb_clk_i_bF$buf1 ~arst_i_bF$buf6 ~vdd \byte_controller.bit_controller.clk_cnt\_9_ NULL ddflop
A_1057_ _39_ wb_clk_i_bF$buf0 ~arst_i_bF$buf5 ~vdd \byte_controller.bit_controller.clk_cnt\_10_ NULL ddflop
A_1058_ _40_ wb_clk_i_bF$buf11 ~arst_i_bF$buf4 ~vdd \byte_controller.bit_controller.clk_cnt\_11_ NULL ddflop
A_1059_ _41_ wb_clk_i_bF$buf10 ~arst_i_bF$buf3 ~vdd \byte_controller.bit_controller.clk_cnt\_12_ NULL ddflop
A_1060_ _42_ wb_clk_i_bF$buf9 ~arst_i_bF$buf2 ~vdd \byte_controller.bit_controller.clk_cnt\_13_ NULL ddflop
A_1061_ _43_ wb_clk_i_bF$buf8 ~arst_i_bF$buf1 ~vdd \byte_controller.bit_controller.clk_cnt\_14_ NULL ddflop
A_1062_ _44_ wb_clk_i_bF$buf7 ~arst_i_bF$buf0 ~vdd \byte_controller.bit_controller.clk_cnt\_15_ NULL ddflop
A_1063_ _45_ wb_clk_i_bF$buf6 ~vdd ~arst_i_bF$buf10 ctr_0_ NULL ddflop
A_1064_ [\byte_controller.cmd_ack\] _337_ d_lut_INVX1
A_1065_ [\byte_controller.write\] _338_ d_lut_INVX1
A_1066_ [\byte_controller.read\ \byte_controller.start\ _338_] _339_ d_lut_NOR3X1
A_1067_ [\byte_controller.bit_controller.al\ wb_rst_i_bF$buf1] _340_ d_lut_NOR2X1
A_1068_ [\byte_controller.c_state\_0_ _340_] _341_ d_lut_NAND2X1
A_1069_ [_341_] _342_ d_lut_INVX2
A_1070_ [_337_ _339_ _342_] _343_ d_lut_NAND3X1
A_1071_ [\byte_controller.bit_controller.cmd_ack\ _340_] _344_ d_lut_NAND2X1
A_1072_ [_344_] _345_ d_lut_INVX2
A_1073_ [\byte_controller.c_state\_5_] _346_ d_lut_INVX2
A_1074_ [\byte_controller.read\ _346_] _347_ d_lut_NOR2X1
A_1075_ [_347_ _345_] _348_ d_lut_NAND2X1
A_1076_ [\byte_controller.dcnt\_1_ \byte_controller.dcnt\_0_ \byte_controller.dcnt\_2_] _349_ d_lut_NOR3X1
A_1077_ [_349_ _344_] _350_ d_lut_NOR2X1
A_1078_ [\byte_controller.bit_controller.al\ wb_rst_i_bF$buf0 \byte_controller.bit_controller.cmd_ack\] _351_ d_lut_NOR3X1
A_1079_ [_351_ _350_ \byte_controller.c_state\_3_] _352_ d_lut_OAI21X1
A_1080_ [_343_ _348_ _352_] _219_ d_lut_NAND3X1
A_1081_ [\byte_controller.stop\] _353_ d_lut_INVX1
A_1082_ [\byte_controller.read\ \byte_controller.write\] _354_ d_lut_NOR2X1
A_1083_ [_354_ _353_ \byte_controller.cmd_ack\] _355_ d_lut_AOI21X1
A_1084_ [\byte_controller.read\] _356_ d_lut_INVX1
A_1085_ [\byte_controller.start\ _356_] _357_ d_lut_NOR2X1
A_1086_ [_355_ _357_ _342_] _358_ d_lut_NAND3X1
A_1087_ [_356_ _346_] _359_ d_lut_NOR2X1
A_1088_ [_359_ _345_] _360_ d_lut_NAND2X1
A_1089_ [_351_ _350_ \byte_controller.c_state\_4_] _361_ d_lut_OAI21X1
A_1090_ [_358_ _360_ _361_] _220_ d_lut_NAND3X1
A_1091_ [\byte_controller.bit_controller.cmd_ack\] _362_ d_lut_INVX2
A_1092_ [_362_ _340_] _363_ d_lut_NAND2X1
A_1093_ [\byte_controller.c_state\_0_ _355_] _364_ d_lut_NAND2X1
A_1094_ [\byte_controller.start\ _340_] _365_ d_lut_NAND2X1
A_1095_ [_346_ _363_ _365_ _364_] _221_ d_lut_OAI22X1
A_1096_ [\byte_controller.c_state\_2_] _238_ d_lut_INVX2
A_1097_ [_349_] _239_ d_lut_INVX1
A_1098_ [\byte_controller.c_state\_3_ \byte_controller.c_state\_4_ _345_] _240_ d_lut_OAI21X1
A_1099_ [_238_ _363_ _239_ _240_] _218_ d_lut_OAI22X1
A_1100_ [_355_ _342_] _241_ d_lut_NAND2X1
A_1101_ [\byte_controller.read\ \byte_controller.start\ \byte_controller.write\] _242_ d_lut_NOR3X1
A_1102_ [_242_] _243_ d_lut_INVX1
A_1103_ [\byte_controller.stop\ \byte_controller.c_state\_2_] _244_ d_lut_NAND2X1
A_1104_ [_244_] _245_ d_lut_INVX1
A_1105_ [\byte_controller.c_state\_1_ _351_ _245_ _345_] _246_ d_lut_AOI22X1
A_1106_ [_243_ _241_ _246_] _217_ d_lut_OAI21X1
A_1107_ [\byte_controller.bit_controller.cmd_ack\ \byte_controller.c_state\_2_] _247_ d_lut_NAND2X1
A_1108_ [\byte_controller.stop\ _247_] _248_ d_lut_NOR2X1
A_1109_ [_248_] _249_ d_lut_INVX1
A_1110_ [_354_] _250_ d_lut_INVX1
A_1111_ [\byte_controller.stop\ _250_ _337_] _251_ d_lut_OAI21X1
A_1112_ [\byte_controller.c_state\_1_ _345_ _342_ _251_] _252_ d_lut_AOI22X1
A_1113_ [_340_ _249_ _252_] _216_ d_lut_NAND3X1
A_1114_ [_340_] _253_ d_lut_INVX1
A_1115_ [\byte_controller.c_state\_1_ _345_] _254_ d_lut_NAND2X1
A_1116_ [_253_ _249_ _254_] _212_ d_lut_OAI21X1
A_1117_ [_346_ _344_ _241_] _214_ d_lut_OAI21X1
A_1118_ [\byte_controller.c_state\_4_] _255_ d_lut_INVX1
A_1119_ [_255_ _349_ _240_] _215_ d_lut_AOI21X1
A_1120_ [\byte_controller.bit_controller.cmd_ack\ \byte_controller.ack_in\ \byte_controller.c_state\_2_] _256_ d_lut_OAI21X1
A_1121_ [\byte_controller.bit_controller.cmd_ack\ \byte_controller.c_state\_4_] _257_ d_lut_NAND2X1
A_1122_ [\byte_controller.dout\_7_] _258_ d_lut_INVX1
A_1123_ [\byte_controller.dout\_7_ _238_] _259_ d_lut_NAND2X1
A_1124_ [_362_ _258_ _255_ _259_] _260_ d_lut_AOI22X1
A_1125_ [\byte_controller.ack_in\ _257_ _260_] _261_ d_lut_OAI21X1
A_1126_ [_261_ _256_ _253_] _213_ d_lut_AOI21X1
A_1127_ [\byte_controller.bit_controller.cmd_ack\ \byte_controller.c_state\_2_ \byte_controller.bit_controller.dout\] _262_ d_lut_NAND3X1
A_1128_ [_362_ _238_ \byte_controller.ack_out\] _263_ d_lut_OAI21X1
A_1129_ [_263_ _262_ _253_] _222_ d_lut_AOI21X1
A_1130_ [\byte_controller.shift\] _264_ d_lut_INVX1
A_1131_ [wb_rst_i_bF$buf5 \byte_controller.ld\] _265_ d_lut_NOR2X1
A_1132_ [_264_ _265_] _266_ d_lut_NAND2X1
A_1133_ [_266_] _267_ d_lut_INVX2
A_1134_ [\byte_controller.dout\_0_ _267_] _268_ d_lut_NAND2X1
A_1135_ [\byte_controller.din\_0_ \byte_controller.bit_controller.dout\ \byte_controller.ld\] _269_ d_lut_MUX2X1
A_1136_ [wb_rst_i_bF$buf4] _270_ d_lut_INVX1
A_1137_ [\byte_controller.shift\ \byte_controller.ld\ _270_] _271_ d_lut_OAI21X1
A_1138_ [_269_ _271_ _268_] _223_ d_lut_OAI21X1
A_1139_ [\byte_controller.dout\_1_ _267_] _272_ d_lut_NAND2X1
A_1140_ [\byte_controller.din\_1_ \byte_controller.dout\_0_ \byte_controller.ld\] _273_ d_lut_MUX2X1
A_1141_ [_271_ _273_ _272_] _224_ d_lut_OAI21X1
A_1142_ [\byte_controller.dout\_2_ _267_] _274_ d_lut_NAND2X1
A_1143_ [\byte_controller.din\_2_ \byte_controller.dout\_1_ \byte_controller.ld\] _275_ d_lut_MUX2X1
A_1144_ [_271_ _275_ _274_] _225_ d_lut_OAI21X1
A_1145_ [\byte_controller.dout\_3_ _267_] _276_ d_lut_NAND2X1
A_1146_ [\byte_controller.din\_3_ \byte_controller.dout\_2_ \byte_controller.ld\] _277_ d_lut_MUX2X1
A_1147_ [_271_ _277_ _276_] _226_ d_lut_OAI21X1
A_1148_ [\byte_controller.dout\_4_ _267_] _278_ d_lut_NAND2X1
A_1149_ [\byte_controller.din\_4_ \byte_controller.dout\_3_ \byte_controller.ld\] _279_ d_lut_MUX2X1
A_1150_ [_271_ _279_ _278_] _227_ d_lut_OAI21X1
A_1151_ [\byte_controller.dout\_5_ _267_] _280_ d_lut_NAND2X1
A_1152_ [\byte_controller.din\_5_ \byte_controller.dout\_4_ \byte_controller.ld\] _281_ d_lut_MUX2X1
A_1153_ [_271_ _281_ _280_] _228_ d_lut_OAI21X1
A_1154_ [\byte_controller.dout\_6_ _267_] _282_ d_lut_NAND2X1
A_1155_ [\byte_controller.din\_6_ \byte_controller.dout\_5_ \byte_controller.ld\] _283_ d_lut_MUX2X1
A_1156_ [_271_ _283_ _282_] _229_ d_lut_OAI21X1
A_1157_ [\byte_controller.din\_7_ \byte_controller.dout\_6_ \byte_controller.ld\] _284_ d_lut_MUX2X1
A_1158_ [_271_ _284_ _258_ _266_] _230_ d_lut_OAI22X1
A_1159_ [\byte_controller.dcnt\_0_] _285_ d_lut_INVX1
A_1160_ [_271_] _286_ d_lut_INVX1
A_1161_ [_285_ \byte_controller.ld\ _286_] _287_ d_lut_OAI21X1
A_1162_ [_285_ _266_ _287_] _231_ d_lut_OAI21X1
A_1163_ [\byte_controller.dcnt\_1_] _288_ d_lut_INVX1
A_1164_ [_270_ \byte_controller.dcnt\_0_ _267_] _289_ d_lut_AOI21X1
A_1165_ [\byte_controller.dcnt\_1_ \byte_controller.dcnt\_0_] _290_ d_lut_NOR2X1
A_1166_ [\byte_controller.ld\ _290_ _286_] _291_ d_lut_OAI21X1
A_1167_ [_288_ _289_ _291_] _232_ d_lut_OAI21X1
A_1168_ [\byte_controller.dcnt\_2_] _292_ d_lut_INVX1
A_1169_ [\byte_controller.dcnt\_1_ \byte_controller.dcnt\_0_ \byte_controller.dcnt\_2_] _293_ d_lut_OAI21X1
A_1170_ [_293_ _239_] _294_ d_lut_NAND2X1
A_1171_ [\byte_controller.ld\ _294_ _286_] _295_ d_lut_OAI21X1
A_1172_ [_292_ _266_ _295_] _233_ d_lut_OAI21X1
A_1173_ [_362_ \byte_controller.c_state\_1_ _340_] _296_ d_lut_NAND3X1
A_1174_ [\byte_controller.c_state\_5_ \byte_controller.c_state\_2_ _351_] _297_ d_lut_OAI21X1
A_1175_ [\byte_controller.c_state\_0_ \byte_controller.c_state\_5_] _298_ d_lut_NOR2X1
A_1176_ [_340_ _298_] _299_ d_lut_AND2X2
A_1177_ [\byte_controller.c_state\_3_ \byte_controller.c_state\_4_] _300_ d_lut_NOR2X1
A_1178_ [\byte_controller.c_state\_2_ \byte_controller.c_state\_1_] _301_ d_lut_NOR2X1
A_1179_ [_300_ _301_] _302_ d_lut_AND2X2
A_1180_ [_299_ _302_] _303_ d_lut_NAND2X1
A_1181_ [_296_ _297_ _303_] _304_ d_lut_NAND3X1
A_1182_ [\byte_controller.c_state\_3_ \byte_controller.c_state\_4_ _351_] _305_ d_lut_OAI21X1
A_1183_ [_341_ _355_ _305_] _306_ d_lut_OAI21X1
A_1184_ [_306_ _304_ \byte_controller.bit_controller.cmd\_0_] _307_ d_lut_OAI21X1
A_1185_ [_346_ _238_ _363_] _308_ d_lut_AOI21X1
A_1186_ [_340_ _298_] _309_ d_lut_NAND2X1
A_1187_ [_300_ _301_] _310_ d_lut_NAND2X1
A_1188_ [_309_ _310_ _296_] _311_ d_lut_OAI21X1
A_1189_ [_308_ _311_] _312_ d_lut_NOR2X1
A_1190_ [_306_] _313_ d_lut_INVX2
A_1191_ [_346_ _300_ _301_] _314_ d_lut_NAND3X1
A_1192_ [_365_ _314_] _315_ d_lut_NOR2X1
A_1193_ [_315_ _313_ _312_] _316_ d_lut_NAND3X1
A_1194_ [_316_ _307_] _234_ d_lut_NAND2X1
A_1195_ [_306_ _304_ \byte_controller.bit_controller.cmd\_1_] _317_ d_lut_OAI21X1
A_1196_ [_242_ _314_ _340_] _318_ d_lut_OAI21X1
A_1197_ [_244_ _314_ _318_] _319_ d_lut_AOI21X1
A_1198_ [_313_ _312_ _319_] _320_ d_lut_NAND3X1
A_1199_ [_317_ _320_] _235_ d_lut_NAND2X1
A_1200_ [_292_ _255_ _290_] _321_ d_lut_NAND3X1
A_1201_ [\byte_controller.c_state\_3_ _349_ _321_] _322_ d_lut_OAI21X1
A_1202_ [\byte_controller.c_state\_5_ \byte_controller.c_state\_3_ \byte_controller.c_state\_4_] _323_ d_lut_NOR3X1
A_1203_ [_323_ _301_ _347_] _324_ d_lut_AOI21X1
A_1204_ [_339_ _314_ _340_] _325_ d_lut_OAI21X1
A_1205_ [_322_ _324_ _325_] _326_ d_lut_AOI21X1
A_1206_ [_313_ _312_ _326_] _327_ d_lut_NAND3X1
A_1207_ [_306_ _304_ \byte_controller.bit_controller.cmd\_2_] _328_ d_lut_OAI21X1
A_1208_ [_328_ _327_] _236_ d_lut_NAND2X1
A_1209_ [\byte_controller.c_state\_3_] _329_ d_lut_INVX1
A_1210_ [_329_ _292_ _290_] _330_ d_lut_NAND3X1
A_1211_ [\byte_controller.c_state\_4_ _349_ _330_] _331_ d_lut_OAI21X1
A_1212_ [_323_ _301_ _359_] _332_ d_lut_AOI21X1
A_1213_ [_357_ _314_ _340_] _333_ d_lut_OAI21X1
A_1214_ [_331_ _332_ _333_] _334_ d_lut_AOI21X1
A_1215_ [_313_ _312_ _334_] _335_ d_lut_NAND3X1
A_1216_ [_306_ _304_ \byte_controller.bit_controller.cmd\_3_] _336_ d_lut_OAI21X1
A_1217_ [_336_ _335_] _237_ d_lut_NAND2X1
A_1218_ _216_ wb_clk_i_bF$buf5 ~arst_i_bF$buf9 ~vdd \byte_controller.c_state\_0_ NULL ddflop
A_1219_ _217_ wb_clk_i_bF$buf4 ~vdd ~arst_i_bF$buf8 \byte_controller.c_state\_1_ NULL ddflop
A_1220_ _218_ wb_clk_i_bF$buf3 ~vdd ~arst_i_bF$buf7 \byte_controller.c_state\_2_ NULL ddflop
A_1221_ _219_ wb_clk_i_bF$buf2 ~vdd ~arst_i_bF$buf6 \byte_controller.c_state\_3_ NULL ddflop
A_1222_ _220_ wb_clk_i_bF$buf1 ~vdd ~arst_i_bF$buf5 \byte_controller.c_state\_4_ NULL ddflop
A_1223_ _221_ wb_clk_i_bF$buf0 ~vdd ~arst_i_bF$buf4 \byte_controller.c_state\_5_ NULL ddflop
A_1224_ _212_ wb_clk_i_bF$buf11 ~vdd ~arst_i_bF$buf3 \byte_controller.cmd_ack\ NULL ddflop
A_1225_ _213_ wb_clk_i_bF$buf10 ~vdd ~arst_i_bF$buf2 \byte_controller.bit_controller.din\ NULL ddflop
A_1226_ _215_ wb_clk_i_bF$buf9 ~vdd ~arst_i_bF$buf1 \byte_controller.shift\ NULL ddflop
A_1227_ _214_ wb_clk_i_bF$buf8 ~vdd ~arst_i_bF$buf0 \byte_controller.ld\ NULL ddflop
A_1228_ _222_ wb_clk_i_bF$buf7 ~vdd ~arst_i_bF$buf10 \byte_controller.ack_out\ NULL ddflop
A_1229_ _223_ wb_clk_i_bF$buf6 ~vdd ~arst_i_bF$buf9 \byte_controller.dout\_0_ NULL ddflop
A_1230_ _224_ wb_clk_i_bF$buf5 ~vdd ~arst_i_bF$buf8 \byte_controller.dout\_1_ NULL ddflop
A_1231_ _225_ wb_clk_i_bF$buf4 ~vdd ~arst_i_bF$buf7 \byte_controller.dout\_2_ NULL ddflop
A_1232_ _226_ wb_clk_i_bF$buf3 ~vdd ~arst_i_bF$buf6 \byte_controller.dout\_3_ NULL ddflop
A_1233_ _227_ wb_clk_i_bF$buf2 ~vdd ~arst_i_bF$buf5 \byte_controller.dout\_4_ NULL ddflop
A_1234_ _228_ wb_clk_i_bF$buf1 ~vdd ~arst_i_bF$buf4 \byte_controller.dout\_5_ NULL ddflop
A_1235_ _229_ wb_clk_i_bF$buf0 ~vdd ~arst_i_bF$buf3 \byte_controller.dout\_6_ NULL ddflop
A_1236_ _230_ wb_clk_i_bF$buf11 ~vdd ~arst_i_bF$buf2 \byte_controller.dout\_7_ NULL ddflop
A_1237_ _231_ wb_clk_i_bF$buf10 ~vdd ~arst_i_bF$buf1 \byte_controller.dcnt\_0_ NULL ddflop
A_1238_ _232_ wb_clk_i_bF$buf9 ~vdd ~arst_i_bF$buf0 \byte_controller.dcnt\_1_ NULL ddflop
A_1239_ _233_ wb_clk_i_bF$buf8 ~vdd ~arst_i_bF$buf10 \byte_controller.dcnt\_2_ NULL ddflop
A_1240_ _234_ wb_clk_i_bF$buf7 ~vdd ~arst_i_bF$buf9 \byte_controller.bit_controller.cmd\_0_ NULL ddflop
A_1241_ _235_ wb_clk_i_bF$buf6 ~vdd ~arst_i_bF$buf8 \byte_controller.bit_controller.cmd\_1_ NULL ddflop
A_1242_ _236_ wb_clk_i_bF$buf5 ~vdd ~arst_i_bF$buf7 \byte_controller.bit_controller.cmd\_2_ NULL ddflop
A_1243_ _237_ wb_clk_i_bF$buf4 ~vdd ~arst_i_bF$buf6 \byte_controller.bit_controller.cmd\_3_ NULL ddflop
A_1244_ [\byte_controller.bit_controller.cnt\_3_] _424_ d_lut_INVX1
A_1245_ [\byte_controller.bit_controller.cnt\_2_] _425_ d_lut_INVX1
A_1246_ [\byte_controller.bit_controller.cnt\_1_ \byte_controller.bit_controller.cnt\_0_] _426_ d_lut_NOR2X1
A_1247_ [_424_ _425_ _426_] _427_ d_lut_NAND3X1
A_1248_ [\byte_controller.bit_controller.cnt\_4_] _428_ d_lut_INVX1
A_1249_ [\byte_controller.bit_controller.cnt\_7_] _429_ d_lut_INVX1
A_1250_ [\byte_controller.bit_controller.cnt\_5_ \byte_controller.bit_controller.cnt\_6_] _430_ d_lut_NOR2X1
A_1251_ [_428_ _429_ _430_] _431_ d_lut_NAND3X1
A_1252_ [_427_ _431_] _432_ d_lut_OR2X2
A_1253_ [\byte_controller.bit_controller.cnt\_8_ _432_] _433_ d_lut_NOR2X1
A_1254_ [\byte_controller.bit_controller.cnt\_9_ \byte_controller.bit_controller.cnt\_10_] _434_ d_lut_NOR2X1
A_1255_ [\byte_controller.bit_controller.cnt\_15_ \byte_controller.bit_controller.cnt\_14_] _435_ d_lut_NOR2X1
A_1256_ [\byte_controller.bit_controller.cnt\_13_ \byte_controller.bit_controller.cnt\_12_] _436_ d_lut_NOR2X1
A_1257_ [_434_ _435_ _436_] _437_ d_lut_NAND3X1
A_1258_ [\byte_controller.bit_controller.cnt\_11_ _437_] _438_ d_lut_NOR2X1
A_1259_ [_438_ _433_] _439_ d_lut_NAND2X1
A_1260_ [_784_] _440_ d_lut_INVX1
A_1261_ [\byte_controller.bit_controller.sSCL\ _440_] _441_ d_lut_NOR2X1
A_1262_ [wb_rst_i_bF$buf3] _442_ d_lut_INVX4
A_1263_ [\byte_controller.bit_controller.ena\ _442_] _443_ d_lut_NAND2X1
A_1264_ [_441_ \byte_controller.bit_controller.dSCL\ _443_] _444_ d_lut_AOI21X1
A_1265_ [_444_ _439_] _370_ d_lut_NAND2X1
A_1266_ [\byte_controller.bit_controller.c_state\_2_ \byte_controller.bit_controller.c_state\_3_] _445_ d_lut_NOR2X1
A_1267_ [\byte_controller.bit_controller.c_state\_0_ \byte_controller.bit_controller.c_state\_1_] _446_ d_lut_NOR2X1
A_1268_ [_445_ _446_] _447_ d_lut_NAND2X1
A_1269_ [\byte_controller.bit_controller.c_state\_6_ \byte_controller.bit_controller.c_state\_7_] _448_ d_lut_NOR2X1
A_1270_ [\byte_controller.bit_controller.c_state\_5_ \byte_controller.bit_controller.c_state\_4_] _449_ d_lut_NOR2X1
A_1271_ [_448_ _449_] _450_ d_lut_NAND2X1
A_1272_ [_447_ _450_] _451_ d_lut_NOR2X1
A_1273_ [\byte_controller.bit_controller.c_state\_10_ \byte_controller.bit_controller.c_state\_11_] _452_ d_lut_NOR2X1
A_1274_ [\byte_controller.bit_controller.c_state\_9_ \byte_controller.bit_controller.c_state\_8_] _453_ d_lut_NOR2X1
A_1275_ [_452_ _453_] _454_ d_lut_AND2X2
A_1276_ [_451_ _454_] _455_ d_lut_AND2X2
A_1277_ [\byte_controller.bit_controller.c_state\_15_ \byte_controller.bit_controller.c_state\_14_] _456_ d_lut_NOR2X1
A_1278_ [_456_] _457_ d_lut_INVX1
A_1279_ [\byte_controller.bit_controller.c_state\_16_] _458_ d_lut_INVX4
A_1280_ [\byte_controller.bit_controller.c_state\_13_] _459_ d_lut_INVX1
A_1281_ [\byte_controller.bit_controller.c_state\_12_ _458_ _459_] _460_ d_lut_NAND3X1
A_1282_ [_460_ _457_] _461_ d_lut_NOR2X1
A_1283_ [\byte_controller.bit_controller.c_state\_13_ \byte_controller.bit_controller.c_state\_12_] _462_ d_lut_NOR2X1
A_1284_ [_456_ _462_] _463_ d_lut_AND2X2
A_1285_ [_454_ _463_] _464_ d_lut_NAND2X1
A_1286_ [_458_ _464_] _465_ d_lut_NOR2X1
A_1287_ [_465_ _451_ _455_ _461_] _466_ d_lut_AOI22X1
A_1288_ [_458_ _445_ _446_] _467_ d_lut_NAND3X1
A_1289_ [_467_ _464_] _468_ d_lut_NOR2X1
A_1290_ [_448_] _469_ d_lut_INVX1
A_1291_ [\byte_controller.bit_controller.c_state\_5_] _470_ d_lut_INVX1
A_1292_ [\byte_controller.bit_controller.c_state\_4_ _470_] _471_ d_lut_NAND2X1
A_1293_ [_471_ _469_] _472_ d_lut_NOR2X1
A_1294_ [_472_ _468_] _473_ d_lut_NAND2X1
A_1295_ [_456_ _462_] _474_ d_lut_NAND2X1
A_1296_ [_458_ _452_] _475_ d_lut_NAND2X1
A_1297_ [_475_ _474_] _476_ d_lut_NOR2X1
A_1298_ [_451_ _476_] _477_ d_lut_AND2X2
A_1299_ [\byte_controller.bit_controller.c_state\_9_] _478_ d_lut_INVX1
A_1300_ [_478_ \byte_controller.bit_controller.c_state\_8_] _479_ d_lut_AND2X2
A_1301_ [_479_ _477_] _480_ d_lut_NAND2X1
A_1302_ [_473_ _480_ _466_] _481_ d_lut_NAND3X1
A_1303_ [\byte_controller.bit_controller.clk_en\] _482_ d_lut_INVX2
A_1304_ [wb_rst_i_bF$buf2 \byte_controller.bit_controller.al\] _483_ d_lut_NOR2X1
A_1305_ [_483_] _484_ d_lut_INVX2
A_1306_ [_482_ _484_] _485_ d_lut_NOR2X1
A_1307_ [_481_ _485_] _371_ d_lut_AND2X2
A_1308_ [_452_ _453_] _486_ d_lut_NAND2X1
A_1309_ [_486_ _474_] _487_ d_lut_NOR2X1
A_1310_ [_467_] _488_ d_lut_INVX2
A_1311_ [_488_ _487_] _489_ d_lut_NAND2X1
A_1312_ [_450_ _489_] _490_ d_lut_NOR2X1
A_1313_ [\byte_controller.bit_controller.cmd_stop\] _491_ d_lut_INVX1
A_1314_ [\byte_controller.bit_controller.sto_condition\ _442_ _491_] _492_ d_lut_NAND3X1
A_1315_ [wb_rst_i_bF$buf1 \byte_controller.bit_controller.sSDA\] _493_ d_lut_NOR2X1
A_1316_ [\byte_controller.bit_controller.sda_chk\ _785_ _493_] _494_ d_lut_NAND3X1
A_1317_ [_492_ _490_ _494_] _366_ d_lut_OAI21X1
A_1318_ [\byte_controller.bit_controller.busy\ \byte_controller.bit_controller.sta_condition\ _442_] _495_ d_lut_OAI21X1
A_1319_ [\byte_controller.bit_controller.sto_condition\ _495_] _367_ d_lut_NOR2X1
A_1320_ [\byte_controller.bit_controller.sSDA\] _496_ d_lut_INVX1
A_1321_ [\byte_controller.bit_controller.dSDA\ _496_] _497_ d_lut_NOR2X1
A_1322_ [\byte_controller.bit_controller.sSCL\ _497_] _498_ d_lut_NAND2X1
A_1323_ [wb_rst_i_bF$buf0 _498_] _379_ d_lut_NOR2X1
A_1324_ [_493_] _373_ d_lut_INVX1
A_1325_ [\byte_controller.bit_controller.sSCL\ \byte_controller.bit_controller.dSDA\] _499_ d_lut_NAND2X1
A_1326_ [_499_ _373_] _378_ d_lut_NOR2X1
A_1327_ [_443_] _500_ d_lut_INVX2
A_1328_ [\byte_controller.bit_controller.filter_cnt\_11_ \byte_controller.bit_controller.filter_cnt\_12_] _501_ d_lut_NOR2X1
A_1329_ [\byte_controller.bit_controller.filter_cnt\_10_ \byte_controller.bit_controller.filter_cnt\_13_] _502_ d_lut_NOR2X1
A_1330_ [_501_ _502_] _503_ d_lut_NAND2X1
A_1331_ [_503_] _504_ d_lut_INVX1
A_1332_ [\byte_controller.bit_controller.filter_cnt\_6_] _505_ d_lut_INVX1
A_1333_ [\byte_controller.bit_controller.filter_cnt\_4_] _506_ d_lut_INVX1
A_1334_ [\byte_controller.bit_controller.filter_cnt\_2_] _507_ d_lut_INVX1
A_1335_ [\byte_controller.bit_controller.filter_cnt\_1_ \byte_controller.bit_controller.filter_cnt\_0_] _508_ d_lut_NOR2X1
A_1336_ [_507_ _508_] _509_ d_lut_NAND2X1
A_1337_ [\byte_controller.bit_controller.filter_cnt\_3_ _509_] _510_ d_lut_NOR2X1
A_1338_ [_506_ _510_] _511_ d_lut_NAND2X1
A_1339_ [\byte_controller.bit_controller.filter_cnt\_5_ _511_] _512_ d_lut_NOR2X1
A_1340_ [_505_ _512_] _513_ d_lut_NAND2X1
A_1341_ [\byte_controller.bit_controller.filter_cnt\_7_ _513_] _514_ d_lut_NOR2X1
A_1342_ [\byte_controller.bit_controller.filter_cnt\_9_ \byte_controller.bit_controller.filter_cnt\_8_] _515_ d_lut_NOR2X1
A_1343_ [_504_ _515_ _514_] _516_ d_lut_NAND3X1
A_1344_ [\byte_controller.bit_controller.clk_cnt\_2_ _516_ _500_] _517_ d_lut_OAI21X1
A_1345_ [\byte_controller.bit_controller.filter_cnt\_0_ _517_] _374__0_ d_lut_NOR2X1
A_1346_ [\byte_controller.bit_controller.clk_cnt\_3_] _518_ d_lut_INVX1
A_1347_ [_513_ \byte_controller.bit_controller.filter_cnt\_7_] _519_ d_lut_OR2X2
A_1348_ [_515_ _504_] _520_ d_lut_NAND2X1
A_1349_ [_520_ _519_] _521_ d_lut_NOR2X1
A_1350_ [\byte_controller.bit_controller.filter_cnt\_1_ \byte_controller.bit_controller.filter_cnt\_0_] _522_ d_lut_AND2X2
A_1351_ [_508_ _522_ _500_] _523_ d_lut_OAI21X1
A_1352_ [_521_ _518_ _523_] _374__1_ d_lut_AOI21X1
A_1353_ [\byte_controller.bit_controller.clk_cnt\_4_] _524_ d_lut_INVX1
A_1354_ [\byte_controller.bit_controller.filter_cnt\_1_ \byte_controller.bit_controller.filter_cnt\_0_ \byte_controller.bit_controller.filter_cnt\_2_] _525_ d_lut_OAI21X1
A_1355_ [_525_ _509_] _526_ d_lut_NAND2X1
A_1356_ [_500_ _526_] _527_ d_lut_NAND2X1
A_1357_ [_521_ _524_ _527_] _374__2_ d_lut_AOI21X1
A_1358_ [\byte_controller.bit_controller.clk_cnt\_5_] _528_ d_lut_INVX1
A_1359_ [_509_ \byte_controller.bit_controller.filter_cnt\_3_] _529_ d_lut_AND2X2
A_1360_ [_510_ _529_ _500_] _530_ d_lut_OAI21X1
A_1361_ [_521_ _528_ _530_] _374__3_ d_lut_AOI21X1
A_1362_ [\byte_controller.bit_controller.clk_cnt\_6_] _531_ d_lut_INVX1
A_1363_ [_511_] _532_ d_lut_INVX1
A_1364_ [_506_ _510_] _533_ d_lut_NOR2X1
A_1365_ [_533_ _532_ _500_] _534_ d_lut_OAI21X1
A_1366_ [_521_ _531_ _534_] _374__4_ d_lut_AOI21X1
A_1367_ [_512_] _535_ d_lut_INVX1
A_1368_ [\byte_controller.bit_controller.filter_cnt\_5_ _511_] _536_ d_lut_NAND2X1
A_1369_ [\byte_controller.bit_controller.clk_cnt\_7_ _516_ _500_] _537_ d_lut_OAI21X1
A_1370_ [_535_ _536_ _537_] _374__5_ d_lut_AOI21X1
A_1371_ [\byte_controller.bit_controller.clk_cnt\_8_] _538_ d_lut_INVX1
A_1372_ [\byte_controller.bit_controller.filter_cnt\_5_ _511_ \byte_controller.bit_controller.filter_cnt\_6_] _539_ d_lut_OAI21X1
A_1373_ [_539_ _513_] _540_ d_lut_NAND2X1
A_1374_ [_500_ _540_] _541_ d_lut_NAND2X1
A_1375_ [_521_ _538_ _541_] _374__6_ d_lut_AOI21X1
A_1376_ [\byte_controller.bit_controller.filter_cnt\_6_ _535_ \byte_controller.bit_controller.filter_cnt\_7_] _542_ d_lut_OAI21X1
A_1377_ [\byte_controller.bit_controller.clk_cnt\_9_ _520_ _514_] _543_ d_lut_OAI21X1
A_1378_ [_543_ _542_ _443_] _374__7_ d_lut_AOI21X1
A_1379_ [\byte_controller.bit_controller.filter_cnt\_7_ \byte_controller.bit_controller.filter_cnt\_8_ _513_] _544_ d_lut_NOR3X1
A_1380_ [\byte_controller.bit_controller.filter_cnt\_8_] _545_ d_lut_INVX1
A_1381_ [_545_ _514_] _546_ d_lut_NOR2X1
A_1382_ [_544_ _546_ _516_] _547_ d_lut_OAI21X1
A_1383_ [\byte_controller.bit_controller.clk_cnt\_10_ _521_] _548_ d_lut_NAND2X1
A_1384_ [_547_ _548_ _443_] _374__8_ d_lut_AOI21X1
A_1385_ [\byte_controller.bit_controller.filter_cnt\_8_ _519_ \byte_controller.bit_controller.filter_cnt\_9_] _549_ d_lut_OAI21X1
A_1386_ [_514_ _515_] _550_ d_lut_AND2X2
A_1387_ [\byte_controller.bit_controller.clk_cnt\_11_ _503_ _550_] _551_ d_lut_OAI21X1
A_1388_ [_551_ _549_ _443_] _374__9_ d_lut_AOI21X1
A_1389_ [\byte_controller.bit_controller.filter_cnt\_10_] _552_ d_lut_INVX1
A_1390_ [_552_ _515_ _514_] _553_ d_lut_NAND3X1
A_1391_ [_515_ _514_] _554_ d_lut_NAND2X1
A_1392_ [\byte_controller.bit_controller.filter_cnt\_10_ _554_] _555_ d_lut_NAND2X1
A_1393_ [\byte_controller.bit_controller.clk_cnt\_12_ _516_ _500_] _556_ d_lut_OAI21X1
A_1394_ [_553_ _555_ _556_] _374__10_ d_lut_AOI21X1
A_1395_ [\byte_controller.bit_controller.filter_cnt\_10_ _554_ \byte_controller.bit_controller.filter_cnt\_11_] _557_ d_lut_OAI21X1
A_1396_ [\byte_controller.bit_controller.filter_cnt\_11_] _558_ d_lut_INVX1
A_1397_ [_558_ _552_ _550_] _559_ d_lut_NAND3X1
A_1398_ [\byte_controller.bit_controller.clk_cnt\_13_ _516_ _500_] _560_ d_lut_OAI21X1
A_1399_ [_559_ _557_ _560_] _374__11_ d_lut_AOI21X1