* NGSPICE file created from i2c_master_top.ext - technology: scmos

* Black-box entry subcircuit for NOR2X1 abstract view
.subckt NOR2X1 A B gnd Y vdd
.ends

* Black-box entry subcircuit for OAI21X1 abstract view
.subckt OAI21X1 A B C gnd Y vdd
.ends

* Black-box entry subcircuit for AOI21X1 abstract view
.subckt AOI21X1 A B C gnd Y vdd
.ends

* Black-box entry subcircuit for NAND3X1 abstract view
.subckt NAND3X1 A B C gnd Y vdd
.ends

* Black-box entry subcircuit for FILL abstract view
.subckt FILL gnd vdd
.ends

* Black-box entry subcircuit for NAND2X1 abstract view
.subckt NAND2X1 A B gnd Y vdd
.ends

* Black-box entry subcircuit for DFFSR abstract view
.subckt DFFSR Q CLK R S D gnd vdd
.ends

* Black-box entry subcircuit for BUFX2 abstract view
.subckt BUFX2 A gnd Y vdd
.ends

* Black-box entry subcircuit for INVX2 abstract view
.subckt INVX2 A gnd Y vdd
.ends

* Black-box entry subcircuit for AND2X2 abstract view
.subckt AND2X2 A B gnd Y vdd
.ends

* Black-box entry subcircuit for AOI22X1 abstract view
.subckt AOI22X1 A B C D gnd Y vdd
.ends

* Black-box entry subcircuit for INVX1 abstract view
.subckt INVX1 A gnd Y vdd
.ends

* Black-box entry subcircuit for OR2X2 abstract view
.subckt OR2X2 A B gnd Y vdd
.ends

* Black-box entry subcircuit for MUX2X1 abstract view
.subckt MUX2X1 A B S gnd Y vdd
.ends

* Black-box entry subcircuit for OAI22X1 abstract view
.subckt OAI22X1 A B C D gnd Y vdd
.ends

* Black-box entry subcircuit for NOR3X1 abstract view
.subckt NOR3X1 A B C gnd Y vdd
.ends

* Black-box entry subcircuit for CLKBUF1 abstract view
.subckt CLKBUF1 A gnd Y vdd
.ends

* Black-box entry subcircuit for DFFPOSX1 abstract view
.subckt DFFPOSX1 Q CLK D gnd vdd
.ends

* Black-box entry subcircuit for INVX4 abstract view
.subckt INVX4 A gnd Y vdd
.ends

.subckt i2c_master_top gnd vdd arst_i scl_pad_i scl_pad_o scl_padoen_o sda_pad_i sda_pad_o
+ sda_padoen_o wb_ack_o wb_adr_i[2] wb_adr_i[1] wb_adr_i[0] wb_clk_i wb_cyc_i wb_dat_i[7]
+ wb_dat_i[6] wb_dat_i[5] wb_dat_i[4] wb_dat_i[3] wb_dat_i[2] wb_dat_i[1] wb_dat_i[0]
+ wb_dat_o[7] wb_dat_o[6] wb_dat_o[5] wb_dat_o[4] wb_dat_o[3] wb_dat_o[2] wb_dat_o[1]
+ wb_dat_o[0] wb_inta_o wb_rst_i wb_stb_i wb_we_i
X_1270_ _1498_/A _1720_/Q gnd _1271_/B vdd NOR2X1
X_1606_ _1247_/A _1602_/B _1605_/Y gnd _1606_/Y vdd OAI21X1
X_1399_ _1397_/Y _1395_/Y _1399_/C gnd _1399_/Y vdd AOI21X1
X_1468_ _1533_/A _1467_/Y gnd _1537_/B vdd NOR2X1
X_1537_ _1552_/C _1537_/B _1471_/Y gnd _1538_/C vdd NAND3X1
X_981_ _981_/A _983_/C _981_/C gnd _981_/Y vdd OAI21X1
X_1184_ _1190_/A _1181_/Y _1184_/C gnd _1184_/Y vdd OAI21X1
X_1253_ _1743_/Q _1252_/Y gnd _1253_/Y vdd NOR2X1
XSFILL12400x28100 gnd vdd FILL
X_1322_ _1261_/A _1322_/B gnd _1323_/B vdd NAND2X1
X_895_ _895_/A _895_/B gnd _895_/Y vdd NOR2X1
X_964_ _896_/Y _964_/B _801_/A gnd _983_/C vdd OAI21X1
X_1098_ _1221_/Q _1211_/A _1098_/C gnd _1099_/D vdd OAI21X1
X_1167_ _1163_/Y _1164_/Y _1167_/C gnd _1167_/Y vdd OAI21X1
X_1236_ _890_/A _1220_/CLK _1226_/R vdd _1236_/D gnd vdd DFFSR
XBUFX2_insert0 wb_rst_i gnd _804_/A vdd BUFX2
XSFILL42480x18100 gnd vdd FILL
X_1305_ _1305_/A gnd _1306_/B vdd INVX2
XSFILL26960x32100 gnd vdd FILL
X_947_ _896_/Y _947_/B gnd _948_/B vdd NOR2X1
X_878_ _831_/A _982_/A _888_/C gnd _878_/Y vdd NAND3X1
X_1219_ _1173_/B _1220_/CLK _1219_/R vdd _1106_/Y gnd vdd DFFSR
X_1021_ _834_/A _1018_/CLK _1040_/R vdd _800_/Y gnd vdd DFFSR
X_801_ _801_/A _801_/B gnd _801_/Y vdd AND2X2
XSFILL42960x14100 gnd vdd FILL
X_1004_ _983_/A wb_dat_i[6] _988_/Y gnd _1005_/C vdd OAI21X1
X_1570_ _1303_/Y _1570_/B _1305_/A gnd _1578_/C vdd OAI21X1
X_1699_ _1699_/Q _1060_/CLK _1223_/R vdd _1399_/Y gnd vdd DFFSR
X_1622_ _1250_/B _1627_/D gnd _1624_/B vdd NAND2X1
XSFILL10960x16100 gnd vdd FILL
X_1553_ _1553_/A _1550_/Y _1553_/C gnd _1725_/D vdd OAI21X1
XSFILL42480x26100 gnd vdd FILL
X_1484_ _1483_/Y _1297_/Y _1456_/A gnd _1484_/Y vdd NAND3X1
X_1605_ _973_/A _1596_/B _1605_/C _1596_/D gnd _1605_/Y vdd AOI22X1
X_1398_ _859_/A _1398_/B _1398_/C gnd _1399_/C vdd OAI21X1
X_1467_ _1467_/A gnd _1467_/Y vdd INVX1
X_1536_ _1467_/Y _1543_/B _1535_/Y gnd _1536_/Y vdd OAI21X1
X_980_ _983_/A wb_dat_i[5] _983_/C gnd _981_/C vdd OAI21X1
X_1183_ _1183_/A _1183_/B _1183_/C gnd _1190_/A vdd OAI21X1
X_1252_ _1247_/Y _1630_/B gnd _1252_/Y vdd OR2X2
X_1321_ _1321_/A _1431_/A gnd _1322_/B vdd NOR2X1
XSFILL28080x100 gnd vdd FILL
X_1519_ _1519_/A _1545_/D _1547_/B gnd _1519_/Y vdd NAND3X1
X_894_ wb_stb_i wb_cyc_i gnd _895_/B vdd NAND2X1
X_963_ _831_/A _888_/C gnd _964_/B vdd NAND2X1
XSFILL26640x12100 gnd vdd FILL
X_1097_ _1119_/B gnd _1097_/Y vdd INVX1
XSFILL42480x34100 gnd vdd FILL
X_1166_ _1166_/A _1200_/C _1166_/C gnd _1167_/C vdd OAI21X1
X_1235_ _873_/A _1018_/CLK _1040_/R vdd _1156_/Y gnd vdd DFFSR
XBUFX2_insert1 wb_rst_i gnd _986_/A vdd BUFX2
X_1304_ _971_/A _793_/A gnd _1305_/A vdd NOR2X1
X_1020_ _886_/A _1043_/CLK _1223_/R vdd _801_/Y gnd vdd DFFSR
X_946_ _793_/Y _943_/Y gnd _951_/A vdd NAND2X1
X_877_ _877_/A gnd _916_/B vdd INVX1
X_1218_ _1218_/Q _1220_/CLK vdd _1223_/R _1113_/Y gnd vdd DFFSR
X_800_ _798_/Y _799_/Y _804_/A gnd _800_/Y vdd AOI21X1
XSFILL28080x16100 gnd vdd FILL
X_1149_ _931_/A _849_/B _1166_/A gnd _1149_/Y vdd MUX2X1
XSFILL27120x32100 gnd vdd FILL
X_1003_ _861_/A _988_/Y _1003_/C gnd _1003_/Y vdd OAI21X1
X_929_ _849_/C gnd _930_/B vdd INVX1
X_1698_ _1698_/Q _1060_/CLK _1219_/R vdd _1394_/Y gnd vdd DFFSR
XSFILL12880x24100 gnd vdd FILL
XSFILL43120x14100 gnd vdd FILL
X_1552_ _1216_/C _1551_/Y _1552_/C gnd _1553_/A vdd NAND3X1
X_1621_ _1619_/Y _1620_/Y _1596_/D gnd _1624_/C vdd OAI21X1
X_1483_ _1274_/B _1299_/Y gnd _1483_/Y vdd NOR2X1
X_1604_ _1247_/Y _1604_/B gnd _1605_/C vdd NAND2X1
XSFILL11120x16100 gnd vdd FILL
X_1535_ _1552_/C _1535_/B _1471_/Y gnd _1535_/Y vdd NAND3X1
X_1466_ _1567_/A _1466_/B _1567_/B gnd _1571_/B vdd OAI21X1
X_1397_ _1397_/A _1397_/B _1397_/C gnd _1397_/Y vdd NAND3X1
X_1182_ _1221_/Q _1211_/A _1174_/C gnd _1183_/C vdd OAI21X1
X_1251_ _1248_/Y _1249_/Y _1251_/C gnd _1630_/B vdd NAND3X1
XSFILL28080x24100 gnd vdd FILL
X_1320_ _1315_/B gnd _1431_/A vdd INVX1
X_1518_ _1310_/Y _1518_/B _1309_/Y gnd _1547_/B vdd NAND3X1
X_1449_ _1303_/Y _1449_/B _1449_/C gnd _1449_/Y vdd AOI21X1
X_893_ _886_/Y _893_/B gnd _893_/Y vdd NAND2X1
X_962_ _818_/B gnd _962_/Y vdd INVX1
X_1165_ _1238_/Q _1165_/B gnd _1200_/C vdd NOR2X1
X_1096_ _1220_/Q gnd _1099_/A vdd INVX2
XSFILL12880x32100 gnd vdd FILL
XBUFX2_insert2 wb_rst_i gnd _983_/A vdd BUFX2
XSFILL28560x20100 gnd vdd FILL
X_1303_ _1706_/Q gnd _1303_/Y vdd INVX2
XSFILL26960x6100 gnd vdd FILL
X_1234_ _864_/A _1019_/CLK _1037_/R vdd _1153_/Y gnd vdd DFFSR
XSFILL42640x10100 gnd vdd FILL
X_945_ _793_/Y _943_/Y _939_/B _945_/D gnd _952_/B vdd AOI22X1
X_876_ _876_/A _867_/B _875_/Y _876_/D gnd _880_/A vdd OAI22X1
X_1079_ _1174_/C _1079_/B _1221_/Q gnd _1080_/C vdd OAI21X1
X_1217_ _1216_/Y _1215_/Y gnd _1243_/D vdd NAND2X1
XFILL53040x6100 gnd vdd FILL
X_1148_ _856_/B _1164_/C gnd _1150_/C vdd NAND2X1
X_928_ _926_/Y _919_/Y _928_/C gnd _928_/Y vdd OAI21X1
X_1002_ _983_/A wb_dat_i[5] _988_/Y gnd _1003_/C vdd OAI21X1
X_859_ _859_/A gnd _861_/A vdd INVX1
X_1697_ _1697_/Q _1707_/CLK _1744_/R vdd _1697_/D gnd vdd DFFSR
XSFILL13520x12100 gnd vdd FILL
XSFILL42160x22100 gnd vdd FILL
X_1551_ _1207_/C gnd _1551_/Y vdd INVX1
X_1620_ _1250_/B _1615_/B gnd _1620_/Y vdd NOR2X1
X_1482_ _1482_/A _1487_/B gnd _1488_/B vdd NAND2X1
XSFILL42960x36100 gnd vdd FILL
X_1749_ _1749_/Q _1243_/CLK _1241_/R vdd _1672_/Y gnd vdd DFFSR
X_1603_ _1737_/Q _1593_/Y _1738_/Q gnd _1604_/B vdd OAI21X1
XSFILL13040x24100 gnd vdd FILL
X_1465_ _1465_/A _1465_/B gnd _1466_/B vdd NOR2X1
X_1396_ _1699_/Q gnd _1397_/A vdd INVX1
X_1534_ _1530_/Y _1515_/A _1534_/C gnd _1534_/Y vdd OAI21X1
XSFILL26640x26100 gnd vdd FILL
X_1181_ _1181_/A _1181_/B _1180_/Y gnd _1181_/Y vdd NAND3X1
X_1250_ _1612_/A _1250_/B gnd _1251_/C vdd NOR2X1
X_1448_ _1303_/Y _1447_/Y _1263_/B gnd _1449_/C vdd OAI21X1
X_1517_ _1310_/Y _1500_/A _1309_/Y gnd _1545_/D vdd NAND3X1
XSFILL42160x30100 gnd vdd FILL
X_892_ _892_/A _889_/Y gnd _893_/B vdd NOR2X1
X_961_ _850_/Y _961_/B _959_/Y _961_/D gnd _961_/Y vdd OAI22X1
X_1379_ _1347_/B _1385_/A _1347_/A gnd _1379_/Y vdd NOR3X1
X_1095_ _1074_/B _1099_/B _1095_/C _1093_/Y gnd _1095_/Y vdd OAI22X1
X_1164_ _1137_/C _1165_/B _1164_/C gnd _1164_/Y vdd AOI21X1
X_1302_ _1294_/Y _1301_/Y _1582_/A gnd _1302_/Y vdd NAND3X1
XFILL52880x16100 gnd vdd FILL
XBUFX2_insert3 wb_rst_i gnd _971_/A vdd BUFX2
X_1233_ _856_/B _1019_/CLK _1037_/R vdd _1233_/D gnd vdd DFFSR
XSFILL27760x2100 gnd vdd FILL
X_875_ _875_/A gnd _875_/Y vdd INVX1
X_944_ wb_adr_i[2] _944_/B _888_/C gnd _945_/D vdd NAND3X1
X_1216_ _1190_/A _1181_/Y _1216_/C gnd _1216_/Y vdd OAI21X1
XSFILL13040x32100 gnd vdd FILL
X_1078_ _793_/A _983_/A _1121_/A gnd _1174_/C vdd NOR3X1
X_1147_ _1160_/A _1146_/Y _1147_/C gnd _1147_/Y vdd OAI21X1
XSFILL26800x6100 gnd vdd FILL
XCLKBUF1_insert10 wb_clk_i gnd _1043_/CLK vdd CLKBUF1
X_858_ _857_/Y _856_/Y _855_/Y gnd _858_/Y vdd NAND3X1
X_1001_ _999_/Y _988_/Y _1001_/C gnd _1059_/D vdd OAI21X1
X_927_ _927_/A _919_/Y gnd _928_/C vdd NAND2X1
X_1696_ _1385_/A _1707_/CLK _1744_/R vdd _1696_/D gnd vdd DFFSR
X_1550_ _1571_/C _1550_/B _1528_/C gnd _1550_/Y vdd NAND3X1
X_1481_ _1481_/A _1478_/Y gnd _1482_/A vdd NOR2X1
X_1748_ _1748_/Q _1243_/CLK _1241_/R vdd _1667_/Y gnd vdd DFFSR
XFILL52880x24100 gnd vdd FILL
X_1679_ _1121_/A _1745_/CLK _1725_/R vdd _1307_/Y gnd vdd DFFSR
XSFILL27600x100 gnd vdd FILL
X_1602_ _1598_/A _1602_/B _1601_/Y gnd _1602_/Y vdd OAI21X1
X_1464_ _1729_/Q _1470_/A _1464_/C gnd _1465_/A vdd NAND3X1
X_1395_ _1698_/Q _1395_/B _1699_/Q gnd _1395_/Y vdd OAI21X1
X_1533_ _1533_/A _1560_/B gnd _1534_/C vdd NAND2X1
XSFILL43120x36100 gnd vdd FILL
X_1180_ _1180_/A _1179_/Y gnd _1180_/Y vdd NAND2X1
X_1516_ _1310_/Y _1580_/B _1309_/Y gnd _1519_/A vdd NAND3X1
X_1447_ _1184_/C _1447_/B gnd _1447_/Y vdd NOR2X1
X_891_ _958_/A _867_/B _891_/C _919_/B gnd _892_/A vdd OAI22X1
X_960_ _896_/Y _945_/D _801_/A gnd _961_/B vdd OAI21X1
X_1378_ _1377_/Y _1376_/Y _1407_/C gnd _1695_/D vdd AOI21X1
XSFILL42640x24100 gnd vdd FILL
X_1301_ _1300_/Y _1581_/A gnd _1301_/Y vdd NAND2X1
X_1232_ _849_/B _1019_/CLK _1037_/R vdd _1147_/Y gnd vdd DFFSR
X_1163_ _1238_/Q gnd _1163_/Y vdd INVX1
X_1094_ _802_/A _1186_/A gnd _1095_/C vdd NAND2X1
XBUFX2_insert4 wb_rst_i gnd _1443_/A vdd BUFX2
X_943_ wb_we_i _895_/A _804_/A gnd _943_/Y vdd AOI21X1
X_874_ _874_/A gnd _876_/A vdd INVX1
X_1215_ _1190_/Y _1189_/Y _1215_/C gnd _1215_/Y vdd NAND3X1
X_1077_ _1119_/B _1077_/B gnd _1079_/B vdd NOR2X1
X_1146_ _849_/C _843_/B _1166_/A gnd _1146_/Y vdd MUX2X1
XFILL53040x16100 gnd vdd FILL
XCLKBUF1_insert11 wb_clk_i gnd _1243_/CLK vdd CLKBUF1
X_857_ _976_/A _845_/Y _857_/C _857_/D gnd _857_/Y vdd AOI22X1
X_1000_ _986_/A wb_dat_i[4] _988_/Y gnd _1001_/C vdd OAI21X1
X_1764_ _1019_/Q gnd wb_inta_o vdd BUFX2
X_926_ _843_/C gnd _926_/Y vdd INVX1
XSFILL27600x2100 gnd vdd FILL
X_1129_ _1129_/A _1127_/Y _1116_/A gnd _1129_/Y vdd AOI21X1
X_1695_ _1347_/B _1058_/CLK _1057_/S vdd _1695_/D gnd vdd DFFSR
XSFILL26800x10100 gnd vdd FILL
X_1480_ _1716_/Q _1485_/B gnd _1481_/A vdd NAND2X1
X_1747_ _1747_/Q _1240_/CLK _1241_/R vdd _1659_/Y gnd vdd DFFSR
X_909_ _908_/Y _909_/B _901_/B gnd _909_/Y vdd MUX2X1
X_1678_ _1127_/C _1707_/CLK _1431_/Y gnd vdd DFFPOSX1
XSFILL12880x6100 gnd vdd FILL
X_1601_ _846_/A _1596_/B _1601_/C _1596_/D gnd _1601_/Y vdd AOI22X1
X_1463_ _1463_/A gnd _1464_/C vdd INVX1
XSFILL12560x26100 gnd vdd FILL
X_1394_ _1405_/B _1394_/B _1393_/Y gnd _1394_/Y vdd AOI21X1
X_1532_ _1485_/B _1543_/B _1530_/Y _1515_/C gnd _1532_/Y vdd OAI22X1
XSFILL13520x34100 gnd vdd FILL
XFILL53040x24100 gnd vdd FILL
X_1446_ _1195_/C _1445_/Y gnd _1447_/B vdd NAND2X1
X_1515_ _1515_/A _1484_/Y _1515_/C gnd _1520_/A vdd NAND3X1
X_1377_ _827_/A _1348_/Y _1386_/A gnd _1377_/Y vdd OAI21X1
X_890_ _890_/A gnd _891_/C vdd INVX1
X_1093_ _1218_/Q _1183_/B gnd _1093_/Y vdd NAND2X1
X_1162_ _1161_/A _1162_/B _1162_/C gnd _1237_/D vdd OAI21X1
X_1300_ _1299_/Y _1274_/B gnd _1300_/Y vdd AND2X2
XBUFX2_insert5 wb_rst_i gnd _921_/A vdd BUFX2
X_1231_ _843_/B _1019_/CLK _1037_/R vdd _1144_/Y gnd vdd DFFSR
X_1429_ _1415_/B _1264_/B gnd _1429_/Y vdd OR2X2
X_873_ _873_/A _873_/B _872_/Y gnd _873_/Y vdd AOI21X1
X_942_ _942_/A _951_/C _942_/C _961_/D gnd _942_/Y vdd OAI22X1
X_1214_ _1214_/A _1214_/B _1213_/Y gnd _1215_/C vdd AOI21X1
X_1145_ _849_/B _1164_/C gnd _1147_/C vdd NAND2X1
XFILL53040x32100 gnd vdd FILL
X_1076_ _1238_/Q _1165_/B _1169_/C gnd _1119_/B vdd NOR3X1
XCLKBUF1_insert12 wb_clk_i gnd _1060_/CLK vdd CLKBUF1
X_925_ _925_/A _919_/Y _925_/C gnd _925_/Y vdd OAI21X1
X_856_ _873_/B _856_/B _931_/A _862_/B gnd _856_/Y vdd AOI22X1
X_1763_ _1017_/Q gnd wb_dat_o[7] vdd BUFX2
X_1128_ _1173_/A _1099_/A _801_/B gnd _1129_/A vdd OAI21X1
X_1059_ _855_/A _1058_/CLK vdd _1057_/S _1059_/D gnd vdd DFFSR
X_1694_ _1376_/A _1707_/CLK _1057_/S vdd _1694_/D gnd vdd DFFSR
X_1746_ _1258_/A _1240_/CLK _1725_/R vdd _1746_/D gnd vdd DFFSR
X_1677_ _1414_/A _1745_/CLK _1734_/Q gnd vdd DFFPOSX1
X_839_ _839_/A gnd _942_/A vdd INVX1
X_908_ wb_dat_i[3] _801_/A gnd _908_/Y vdd NAND2X1
X_1600_ _1600_/A _1598_/Y gnd _1601_/C vdd NAND2X1
X_1462_ _1461_/Y _1526_/B gnd _1567_/A vdd NOR2X1
X_1393_ _855_/A _1398_/B _1398_/C gnd _1393_/Y vdd OAI21X1
X_1531_ _1560_/B gnd _1543_/B vdd INVX4
X_1729_ _1729_/Q _1240_/CLK _1241_/R vdd _1563_/Y gnd vdd DFFSR
X_1445_ _1216_/C _1207_/C gnd _1445_/Y vdd NOR2X1
XSFILL42320x20100 gnd vdd FILL
X_1514_ _1514_/A _1482_/A _1309_/Y gnd _1515_/C vdd NAND3X1
XSFILL12720x6100 gnd vdd FILL
X_1376_ _1376_/A _1376_/B _1347_/B gnd _1376_/Y vdd OAI21X1
X_1092_ _1173_/A _1186_/A gnd _1099_/B vdd NAND2X1
X_1161_ _1161_/A _1166_/A _1166_/C gnd _1162_/C vdd OAI21X1
X_1230_ _829_/A _1019_/CLK _1037_/R vdd _1141_/Y gnd vdd DFFSR
X_1359_ _1359_/A _1691_/Q gnd _1359_/Y vdd AND2X2
XSFILL12240x14100 gnd vdd FILL
X_941_ _835_/A _951_/C _941_/C _961_/D gnd _941_/Y vdd OAI22X1
X_1428_ _1263_/B _1428_/B gnd _1428_/Y vdd NAND2X1
X_1213_ _1213_/A _1204_/B _1186_/A gnd _1213_/Y vdd OAI21X1
X_872_ _870_/Y _889_/B _871_/Y _872_/D gnd _872_/Y vdd OAI22X1
X_1075_ _1075_/A _1098_/C gnd _1075_/Y vdd NAND2X1
X_1144_ _1160_/A _1143_/Y _1144_/C gnd _1144_/Y vdd OAI21X1
X_855_ _855_/A _838_/Y _855_/C gnd _855_/Y vdd AOI21X1
XSFILL43280x12100 gnd vdd FILL
X_924_ _899_/Y _919_/Y gnd _925_/C vdd NAND2X1
XSFILL12720x10100 gnd vdd FILL
XCLKBUF1_insert13 wb_clk_i gnd _1220_/CLK vdd CLKBUF1
X_1127_ _1121_/A _1220_/Q _1127_/C gnd _1127_/Y vdd NAND3X1
X_1058_ _848_/A _1058_/CLK vdd _1040_/R _998_/Y gnd vdd DFFSR
X_1762_ _1762_/A gnd wb_dat_o[6] vdd BUFX2
X_1693_ _1368_/A _1707_/CLK _1057_/S vdd _1693_/D gnd vdd DFFSR
X_1745_ _1646_/C _1745_/CLK _1725_/R vdd _1745_/D gnd vdd DFFSR
X_838_ wb_adr_i[1] wb_adr_i[2] _821_/B gnd _838_/Y vdd NOR3X1
X_907_ _907_/A gnd _909_/B vdd INVX1
XSFILL29200x36100 gnd vdd FILL
X_1676_ _1673_/Y _1675_/Y _1674_/Y gnd _1676_/Y vdd OAI21X1
X_1530_ _1552_/C gnd _1530_/Y vdd INVX4
X_1461_ _1730_/Q _1470_/A _1568_/A gnd _1461_/Y vdd NAND3X1
X_1392_ _1698_/Q _1395_/B gnd _1394_/B vdd NAND2X1
X_1659_ _1659_/A _1658_/Y gnd _1659_/Y vdd NAND2X1
X_1728_ _1463_/A _1240_/CLK _1725_/R vdd _1728_/D gnd vdd DFFSR
XSFILL27760x16100 gnd vdd FILL
XSFILL26800x32100 gnd vdd FILL
X_1513_ _1514_/A _1486_/Y _1309_/Y gnd _1515_/A vdd NAND3X1
XSFILL42800x14100 gnd vdd FILL
X_1444_ _1444_/A _1432_/Y _1444_/C gnd _1713_/D vdd OAI21X1
X_1375_ _1383_/B _1371_/Y _1375_/C gnd _1694_/D vdd AOI21X1
X_1160_ _1160_/A gnd _1166_/C vdd INVX1
X_1091_ _1121_/A gnd _1173_/A vdd INVX2
XSFILL27280x28100 gnd vdd FILL
XSFILL13680x8100 gnd vdd FILL
XSFILL42800x8100 gnd vdd FILL
X_1358_ _979_/A gnd _1361_/B vdd INVX1
X_1289_ _1289_/A _1285_/Y gnd _1294_/B vdd NOR2X1
X_1427_ _1423_/A _1710_/Q _1427_/C gnd _1428_/B vdd OAI21X1
XSFILL42480x8100 gnd vdd FILL
XSFILL14160x22100 gnd vdd FILL
X_871_ _871_/A gnd _871_/Y vdd INVX1
X_940_ _796_/B _951_/C _940_/C _961_/D gnd _940_/Y vdd OAI22X1
X_1074_ _798_/A _1074_/B gnd _1075_/A vdd NOR2X1
X_1212_ _1203_/A _1203_/B _1088_/A gnd _1214_/B vdd AOI21X1
XSFILL42320x26100 gnd vdd FILL
X_1143_ _843_/C _829_/A _1166_/A gnd _1143_/Y vdd MUX2X1
X_854_ _799_/Y _867_/B gnd _855_/C vdd NOR2X1
XSFILL41040x6100 gnd vdd FILL
X_923_ _923_/A _919_/Y _922_/Y gnd _923_/Y vdd OAI21X1
X_1126_ _1126_/A _1126_/B _1116_/A gnd _1225_/D vdd AOI21X1
X_1761_ _1015_/Q gnd wb_dat_o[5] vdd BUFX2
XCLKBUF1_insert14 wb_clk_i gnd _1713_/CLK vdd CLKBUF1
X_1692_ _1692_/Q _1745_/CLK _1744_/R vdd _1692_/D gnd vdd DFFSR
X_1057_ _841_/A _1058_/CLK vdd _1057_/S _995_/Y gnd vdd DFFSR
X_906_ _902_/Y _901_/B _906_/C gnd _906_/Y vdd OAI21X1
X_837_ _837_/A _837_/B gnd _837_/Y vdd NAND2X1
X_1109_ _1109_/A gnd _1113_/B vdd INVX1
X_1675_ _1670_/C _1602_/B gnd _1675_/Y vdd AND2X2
X_1744_ _1639_/A _1060_/CLK _1744_/R vdd _1744_/D gnd vdd DFFSR
X_1727_ _1727_/Q _1240_/CLK _1241_/R vdd _1557_/Y gnd vdd DFFSR
X_1460_ _1731_/Q gnd _1568_/A vdd INVX1
X_1658_ _855_/A _1596_/B _1747_/Q _1627_/D gnd _1658_/Y vdd AOI22X1
X_1391_ _1386_/B _1386_/A gnd _1395_/B vdd NAND2X1
XSFILL27760x100 gnd vdd FILL
X_1589_ _818_/B _1669_/C _1589_/C _1592_/A gnd _1589_/Y vdd OAI22X1
X_1512_ _1512_/A gnd _1514_/A vdd INVX1
X_1443_ _1443_/A _1712_/Q _1432_/Y gnd _1444_/C vdd OAI21X1
X_1374_ _1398_/C _1374_/B gnd _1375_/C vdd NAND2X1
X_1090_ _1086_/Y _1090_/B _1090_/C gnd _1222_/D vdd NAND3X1
X_1357_ _1383_/B _1357_/B _1356_/Y gnd _1690_/D vdd AOI21X1
X_1288_ _1470_/A _1486_/B _1267_/Y gnd _1289_/A vdd NAND3X1
X_1426_ _1426_/A _1438_/A _1424_/Y gnd _1427_/C vdd OAI21X1
XSFILL12720x24100 gnd vdd FILL
X_870_ _870_/A gnd _870_/Y vdd INVX1
X_1211_ _1211_/A _1119_/B _1211_/C gnd _1214_/A vdd OAI21X1
X_1073_ _1223_/Q gnd _1074_/B vdd INVX2
X_999_ _855_/A gnd _999_/Y vdd INVX1
X_1142_ _843_/B _1164_/C gnd _1144_/C vdd NAND2X1
XSFILL13040x2100 gnd vdd FILL
X_1409_ _1263_/B _1704_/Q gnd _1409_/Y vdd AND2X2
XSFILL13520x8100 gnd vdd FILL
X_1760_ _1014_/Q gnd wb_dat_o[4] vdd BUFX2
XSFILL41840x30100 gnd vdd FILL
X_1691_ _1691_/Q _1707_/CLK _1744_/R vdd _1691_/D gnd vdd DFFSR
XCLKBUF1_insert15 wb_clk_i gnd _1707_/CLK vdd CLKBUF1
X_922_ _921_/Y _919_/Y gnd _922_/Y vdd NAND2X1
XSFILL42320x8100 gnd vdd FILL
X_853_ _853_/A _853_/B _852_/Y gnd _853_/Y vdd NAND3X1
X_1125_ _850_/A _1125_/B _1125_/C gnd _1126_/A vdd OAI21X1
X_1056_ _827_/A _1058_/CLK vdd _1034_/R _992_/Y gnd vdd DFFSR
X_905_ _927_/A _901_/B gnd _906_/C vdd NAND2X1
X_836_ _836_/A _832_/Y gnd _837_/B vdd NOR2X1
X_1743_ _1743_/Q _1243_/CLK _1241_/R vdd _1635_/Y gnd vdd DFFSR
X_1108_ _874_/A _1108_/B gnd _1109_/A vdd NOR2X1
X_1674_ _884_/A _1596_/B gnd _1674_/Y vdd NAND2X1
X_1039_ _795_/A _1022_/CLK _1034_/R vdd _940_/Y gnd vdd DFFSR
XSFILL28400x20100 gnd vdd FILL
X_819_ wb_adr_i[0] wb_adr_i[2] _819_/C gnd _889_/B vdd NAND3X1
X_1390_ _1397_/B _1386_/B _1386_/A gnd _1405_/B vdd NAND3X1
XSFILL42800x28100 gnd vdd FILL
X_1657_ _1657_/A _1656_/Y _1596_/D gnd _1659_/A vdd OAI21X1
X_1588_ _1414_/C _1669_/C gnd _1592_/A vdd NAND2X1
X_1726_ _1453_/B _1240_/CLK _1725_/R vdd _1555_/Y gnd vdd DFFSR
X_1511_ _1301_/Y _1507_/Y _1511_/C gnd _1511_/Y vdd NAND3X1
X_1442_ _1420_/C _1432_/Y _1441_/Y gnd _1442_/Y vdd OAI21X1
X_1709_ _1709_/Q _1022_/CLK vdd _1034_/R _1436_/Y gnd vdd DFFSR
X_1373_ _1373_/A _1347_/A gnd _1374_/B vdd NAND2X1
X_1287_ _1286_/Y _1456_/A _1567_/B _1282_/Y gnd _1582_/A vdd AOI22X1
X_1356_ _1398_/C _1355_/Y gnd _1356_/Y vdd NAND2X1
X_1425_ _1710_/Q gnd _1438_/A vdd INVX1
XSFILL26480x12100 gnd vdd FILL
X_1210_ _1209_/Y _1200_/A _1200_/C gnd _1211_/C vdd NAND3X1
X_1072_ _1077_/B gnd _1098_/C vdd INVX2
X_998_ _998_/A _988_/Y _998_/C gnd _998_/Y vdd OAI21X1
X_1141_ _1160_/A _1140_/Y _1141_/C gnd _1141_/Y vdd OAI21X1
X_1408_ _1263_/B sda_pad_i gnd _1704_/D vdd AND2X2
X_1339_ _1368_/A _1338_/Y gnd _1367_/A vdd NOR2X1
X_1690_ _1690_/Q _1707_/CLK _1744_/R vdd _1690_/D gnd vdd DFFSR
XCLKBUF1_insert16 wb_clk_i gnd _1022_/CLK vdd CLKBUF1
X_852_ _857_/D _907_/A _852_/C gnd _852_/Y vdd AOI21X1
X_921_ _921_/A _940_/C gnd _921_/Y vdd NOR2X1
X_1124_ _1173_/A _1158_/C _1119_/A _1124_/D gnd _1125_/C vdd AOI22X1
X_1055_ _809_/A _1058_/CLK vdd _1034_/R _990_/Y gnd vdd DFFSR
XSFILL27920x4100 gnd vdd FILL
X_904_ _921_/A _942_/C gnd _927_/A vdd NOR2X1
X_1673_ _1750_/Q gnd _1673_/Y vdd INVX1
X_1742_ _1627_/C _1060_/CLK _1219_/R vdd _1628_/Y gnd vdd DFFSR
X_835_ _835_/A _867_/B _835_/C _872_/D gnd _836_/A vdd OAI22X1
XSFILL42000x30100 gnd vdd FILL
X_1107_ _1121_/A _1220_/Q gnd _1108_/B vdd NAND2X1
X_1038_ _887_/A _1018_/CLK _1040_/R vdd _936_/Y gnd vdd DFFSR
X_818_ _831_/A _818_/B _888_/C gnd _820_/C vdd NAND3X1
X_1656_ _1650_/Y _1655_/A gnd _1656_/Y vdd AND2X2
X_1725_ _1548_/A _1240_/CLK _1725_/R vdd _1725_/D gnd vdd DFFSR
X_1587_ _1602_/B gnd _1627_/D vdd INVX4
XSFILL26640x8100 gnd vdd FILL
X_1510_ _1510_/A _1573_/A gnd _1511_/C vdd AND2X2
X_1708_ _1423_/A _1022_/CLK vdd _1057_/S _1708_/D gnd vdd DFFSR
X_1441_ _1443_/A _1441_/B _1432_/Y gnd _1441_/Y vdd OAI21X1
X_1372_ _1368_/A _1338_/Y _1376_/A gnd _1373_/A vdd OAI21X1
X_1639_ _1639_/A _1627_/D gnd _1639_/Y vdd NAND2X1
X_1355_ _1354_/Y _1359_/A gnd _1355_/Y vdd NAND2X1
X_1424_ _1709_/Q gnd _1424_/Y vdd INVX1
X_1286_ _1470_/A _1285_/Y gnd _1286_/Y vdd NOR2X1
X_1071_ _1121_/A _1186_/A gnd _1077_/B vdd NAND2X1
X_997_ _986_/A wb_dat_i[3] _988_/Y gnd _998_/C vdd OAI21X1
XSFILL27920x14100 gnd vdd FILL
X_1140_ _830_/A _815_/A _1166_/A gnd _1140_/Y vdd MUX2X1
X_1407_ _1406_/Y _1405_/Y _1407_/C gnd _1407_/Y vdd AOI21X1
X_1269_ _1269_/A _1269_/B gnd _1271_/A vdd NOR2X1
X_1338_ _1338_/A _1360_/A gnd _1338_/Y vdd NAND2X1
XSFILL42480x10100 gnd vdd FILL
X_851_ _850_/Y _867_/B gnd _852_/C vdd NOR2X1
XCLKBUF1_insert17 wb_clk_i gnd _1058_/CLK vdd CLKBUF1
X_920_ wb_dat_i[0] gnd _940_/C vdd INVX1
X_1123_ _890_/A _1099_/A gnd _1124_/D vdd NAND2X1
X_1054_ _985_/A _1060_/CLK vdd _1223_/R _987_/Y gnd vdd DFFSR
XSFILL26480x18100 gnd vdd FILL
X_1672_ _1671_/Y _1670_/Y _1668_/Y gnd _1672_/Y vdd OAI21X1
X_1741_ _1250_/B _1060_/CLK _1725_/R vdd _1741_/D gnd vdd DFFSR
XSFILL11440x20100 gnd vdd FILL
X_834_ _834_/A gnd _835_/C vdd INVX1
X_903_ wb_dat_i[2] gnd _942_/C vdd INVX1
XSFILL13360x12100 gnd vdd FILL
X_1106_ _1106_/A _1106_/B _1105_/Y gnd _1106_/Y vdd OAI21X1
XSFILL41520x16100 gnd vdd FILL
X_1037_ _870_/A _1019_/CLK _1037_/R vdd _935_/Y gnd vdd DFFSR
XSFILL27920x22100 gnd vdd FILL
X_817_ wb_adr_i[0] wb_adr_i[1] gnd _888_/C vdd NOR2X1
X_1655_ _1655_/A _1650_/Y gnd _1657_/A vdd NOR2X1
X_1586_ _1586_/A _1669_/C gnd _1602_/B vdd NAND2X1
X_1724_ _1274_/B _1240_/CLK _1725_/R vdd _1547_/Y gnd vdd DFFSR
XSFILL27440x4100 gnd vdd FILL
X_1440_ _1420_/A _1432_/Y _1440_/C gnd _1711_/D vdd OAI21X1
X_1371_ _809_/A gnd _1371_/Y vdd INVX1
XSFILL26480x26100 gnd vdd FILL
X_1569_ _1470_/A _1543_/B _1530_/Y _1541_/Y gnd _1732_/D vdd OAI22X1
X_1638_ _1636_/Y _1637_/Y _1596_/D gnd _1638_/Y vdd OAI21X1
X_1707_ _1586_/A _1707_/CLK _1725_/R vdd _1415_/Y gnd vdd DFFSR
XSFILL12560x2100 gnd vdd FILL
X_1285_ _1275_/Y _1285_/B gnd _1285_/Y vdd NAND2X1
X_1354_ _1689_/Q _1354_/B _1690_/Q gnd _1354_/Y vdd OAI21X1
XSFILL41360x2100 gnd vdd FILL
X_1423_ _1423_/A gnd _1426_/A vdd INVX1
XSFILL26160x8100 gnd vdd FILL
X_996_ _848_/A gnd _998_/A vdd INVX1
X_1070_ _1070_/A _1204_/A _1100_/B gnd _1070_/Y vdd NAND3X1
X_1268_ _1486_/B _1267_/Y gnd _1272_/A vdd NAND2X1
X_1406_ _884_/A _1383_/B gnd _1406_/Y vdd NAND2X1
X_1337_ _1691_/Q _1359_/A gnd _1360_/A vdd NOR2X1
X_1199_ _1199_/A _1198_/Y gnd _1241_/D vdd NAND2X1
X_850_ _850_/A gnd _850_/Y vdd INVX1
X_1053_ _982_/A _1220_/CLK vdd _1223_/R _984_/Y gnd vdd DFFSR
X_1122_ _890_/A gnd _1158_/C vdd INVX1
X_979_ _979_/A gnd _981_/A vdd INVX1
X_1740_ _1612_/A _1060_/CLK _1219_/R vdd _1740_/D gnd vdd DFFSR
X_1671_ _875_/A _1669_/C _1602_/B gnd _1671_/Y vdd OAI21X1
X_833_ _833_/A gnd _835_/A vdd INVX1
X_902_ _846_/C gnd _902_/Y vdd INVX1
X_1105_ _1173_/B _1174_/C _1104_/Y _1098_/C gnd _1105_/Y vdd AOI22X1
X_1036_ _862_/A _1018_/CLK _1040_/R vdd _934_/Y gnd vdd DFFSR
X_1654_ _1747_/Q gnd _1655_/A vdd INVX1
X_1585_ _1259_/Y _1585_/B gnd _1669_/C vdd AND2X2
X_1723_ _1269_/B _1713_/CLK _1704_/R vdd _1723_/D gnd vdd DFFSR
X_816_ _816_/A gnd _923_/A vdd INVX1
XSFILL42960x12100 gnd vdd FILL
X_1019_ _1019_/Q _1019_/CLK _1037_/R vdd _791_/Y gnd vdd DFFSR
X_1370_ _1376_/B _1368_/Y _1370_/C gnd _1693_/D vdd AOI21X1
X_1568_ _1568_/A _1543_/B _1530_/Y _1568_/D gnd _1568_/Y vdd OAI22X1
X_1637_ _1631_/Y _1639_/A gnd _1637_/Y vdd AND2X2
X_1706_ _1706_/Q _1745_/CLK vdd _1725_/R _1596_/B gnd vdd DFFSR
X_1499_ _1499_/A _1293_/B gnd _1580_/B vdd NOR2X1
XSFILL42480x24100 gnd vdd FILL
X_1284_ _1277_/Y _1459_/A gnd _1285_/B vdd AND2X2
X_1353_ _976_/A gnd _1357_/B vdd INVX1
X_1422_ _1263_/B _1422_/B gnd _1685_/D vdd NAND2X1
XSFILL28880x30100 gnd vdd FILL
XSFILL42640x4100 gnd vdd FILL
X_1405_ _1404_/Y _1405_/B _1701_/Q gnd _1405_/Y vdd OAI21X1
X_995_ _993_/Y _988_/Y _995_/C gnd _995_/Y vdd OAI21X1
X_1198_ _1190_/Y _1189_/Y _1197_/Y gnd _1198_/Y vdd NAND3X1
X_1267_ _1716_/Q _1267_/B gnd _1267_/Y vdd NOR2X1
X_1336_ _1336_/A _1336_/B gnd _1359_/A vdd NAND2X1
X_1121_ _1121_/A _1211_/A gnd _1125_/B vdd NAND2X1
X_1052_ _979_/A _1220_/CLK vdd _1219_/R _981_/Y gnd vdd DFFSR
X_978_ _976_/Y _983_/C _977_/Y gnd _978_/Y vdd OAI21X1
XSFILL41200x2100 gnd vdd FILL
X_1319_ _1319_/A _1319_/B gnd _1319_/Y vdd NOR2X1
XSFILL26960x28100 gnd vdd FILL
X_901_ _828_/A _901_/B _901_/C gnd _901_/Y vdd OAI21X1
XSFILL26640x10100 gnd vdd FILL
X_832_ _925_/A _889_/B _832_/C gnd _832_/Y vdd OAI21X1
X_1104_ _1197_/A gnd _1104_/Y vdd INVX1
X_1670_ _1749_/Q _1670_/B _1670_/C gnd _1670_/Y vdd AOI21X1
XSFILL13840x22100 gnd vdd FILL
X_1035_ _931_/A _1043_/CLK _1037_/R vdd _932_/Y gnd vdd DFFSR
X_1584_ _1246_/B gnd _1589_/C vdd INVX1
X_1653_ _1653_/A _1652_/Y gnd _1746_/D vdd NAND2X1
X_1722_ _1269_/A _1713_/CLK _1704_/R vdd _1722_/D gnd vdd DFFSR
X_815_ _815_/A _873_/B _814_/Y gnd _825_/A vdd AOI21X1
X_1018_ _895_/A _1018_/CLK _895_/Y gnd vdd DFFPOSX1
XSFILL13360x34100 gnd vdd FILL
X_1567_ _1567_/A _1567_/B gnd _1568_/D vdd NAND2X1
X_1636_ _1639_/A _1631_/Y gnd _1636_/Y vdd NOR2X1
X_1705_ _1705_/Q _1713_/CLK _1704_/R vdd _1409_/Y gnd vdd DFFSR
X_1498_ _1498_/A _1538_/A gnd _1499_/A vdd NAND2X1
XSFILL43120x12100 gnd vdd FILL
X_1283_ _1729_/Q _1463_/A gnd _1459_/A vdd NOR2X1
X_1352_ _1383_/B _1352_/B _1351_/Y gnd _1689_/D vdd AOI21X1
X_1421_ _1441_/B _1713_/Q _1421_/C gnd _1422_/B vdd OAI21X1
X_1619_ _1619_/A gnd _1619_/Y vdd INVX1
XBUFX2_insert20 arst_i gnd _1223_/R vdd BUFX2
XSFILL42960x18100 gnd vdd FILL
X_994_ _971_/A wb_dat_i[2] _988_/Y gnd _995_/C vdd OAI21X1
X_1197_ _1197_/A _1204_/B _1197_/C gnd _1197_/Y vdd AOI21X1
X_1404_ _1404_/A gnd _1404_/Y vdd INVX1
X_1266_ _1533_/A _1467_/A gnd _1486_/B vdd NOR2X1
X_1335_ _1689_/Q _1354_/B gnd _1336_/B vdd NOR2X1
X_977_ _986_/A wb_dat_i[4] _983_/C gnd _977_/Y vdd OAI21X1
X_1120_ _1121_/A _850_/A _1220_/Q gnd _1126_/B vdd OAI21X1
X_1051_ _976_/A _1043_/CLK vdd _1040_/R _978_/Y gnd vdd DFFSR
XSFILL27600x16100 gnd vdd FILL
X_1318_ _871_/A _1318_/B _1263_/B gnd _1319_/B vdd OAI21X1
XSFILL28880x36100 gnd vdd FILL
X_1249_ _1627_/C gnd _1249_/Y vdd INVX1
X_831_ _831_/A _831_/B _888_/C gnd _832_/C vdd NAND3X1
XSFILL42160x4100 gnd vdd FILL
X_900_ _899_/Y _901_/B gnd _901_/C vdd NAND2X1
X_1103_ _874_/A _1220_/Q gnd _1197_/A vdd NAND2X1
XSFILL12880x30100 gnd vdd FILL
X_1034_ _849_/C _1022_/CLK _1034_/R vdd _930_/Y gnd vdd DFFSR
XSFILL27920x100 gnd vdd FILL
XSFILL27120x28100 gnd vdd FILL
X_1721_ _1498_/A _1713_/CLK _1704_/R vdd _1721_/D gnd vdd DFFSR
X_814_ _808_/Y _867_/D _814_/C _876_/D gnd _814_/Y vdd OAI22X1
X_1652_ _848_/A _1596_/B _1258_/A _1627_/D gnd _1652_/Y vdd AOI22X1
XSFILL14000x22100 gnd vdd FILL
X_1017_ _1017_/Q _1043_/CLK _893_/Y gnd vdd DFFPOSX1
X_1583_ _1583_/A _1583_/B _1583_/C _1579_/Y gnd _1583_/Y vdd AOI22X1
XFILL53040x4100 gnd vdd FILL
X_1635_ _1631_/A _1602_/B _1634_/Y gnd _1635_/Y vdd OAI21X1
X_1566_ _1524_/Y _1543_/B _1565_/Y gnd _1566_/Y vdd OAI21X1
X_1704_ _1704_/Q _1713_/CLK _1704_/R vdd _1704_/D gnd vdd DFFSR
X_1497_ _1720_/Q gnd _1538_/A vdd INVX1
X_1282_ _1282_/A _1465_/B gnd _1282_/Y vdd NOR2X1
X_1351_ _1336_/B _1350_/Y _1398_/C gnd _1351_/Y vdd OAI21X1
X_1420_ _1420_/A _1444_/A _1420_/C gnd _1421_/C vdd OAI21X1
XSFILL42960x34100 gnd vdd FILL
X_1549_ _1195_/C _1184_/C gnd _1550_/B vdd NOR2X1
X_1618_ _1612_/A _1609_/B _1250_/B gnd _1619_/A vdd OAI21X1
XBUFX2_insert21 arst_i gnd _1226_/R vdd BUFX2
X_993_ _841_/A gnd _993_/Y vdd INVX1
X_1196_ _1101_/Y _1204_/B _1186_/A gnd _1197_/C vdd OAI21X1
X_1265_ _1585_/B _1259_/Y gnd _1596_/B vdd NAND2X1
X_1403_ _1403_/A _1401_/Y _1403_/C gnd _1403_/Y vdd AOI21X1
X_1334_ _1690_/Q gnd _1336_/A vdd INVX1
XCLKBUF1_insert6 wb_clk_i gnd _1745_/CLK vdd CLKBUF1
XSFILL10960x36100 gnd vdd FILL
XSFILL12880x28100 gnd vdd FILL
X_976_ _976_/A gnd _976_/Y vdd INVX1
X_1050_ _973_/A _1060_/CLK vdd _1040_/R _975_/Y gnd vdd DFFSR
XSFILL12560x10100 gnd vdd FILL
X_1179_ _1177_/Y _1203_/B gnd _1179_/Y vdd AND2X2
X_1248_ _1739_/Q gnd _1248_/Y vdd INVX1
X_830_ _830_/A gnd _925_/A vdd INVX1
X_1317_ _1314_/Y _1570_/B _1316_/Y gnd _1317_/Y vdd OAI21X1
X_1102_ _1101_/Y gnd _1106_/A vdd INVX1
X_959_ wb_dat_i[3] gnd _959_/Y vdd INVX1
X_1033_ _843_/C _1019_/CLK _1037_/R vdd _928_/Y gnd vdd DFFSR
X_813_ wb_adr_i[1] _821_/B _831_/A gnd _867_/D vdd NAND3X1
XSFILL29040x36100 gnd vdd FILL
XSFILL13040x30100 gnd vdd FILL
X_1651_ _1651_/A _1650_/Y _1596_/D gnd _1653_/A vdd OAI21X1
X_1582_ _1582_/A _1580_/Y _1582_/C gnd _1583_/C vdd NAND3X1
X_1016_ _1762_/A _1018_/CLK _881_/Y gnd vdd DFFPOSX1
X_1720_ _1720_/Q _1745_/CLK _1744_/R vdd _1538_/Y gnd vdd DFFSR
X_1634_ _809_/A _1596_/B _1634_/C _1596_/D gnd _1634_/Y vdd AOI22X1
XSFILL28560x24100 gnd vdd FILL
X_1703_ _1433_/B _1022_/CLK _1034_/R vdd _1411_/Y gnd vdd DFFSR
X_1565_ _1552_/C _1581_/C gnd _1565_/Y vdd NAND2X1
X_1496_ _1495_/Y _1492_/B gnd _1500_/A vdd NOR2X1
X_1281_ _1463_/A _1470_/A _1281_/C gnd _1282_/A vdd NAND3X1
X_1350_ _1689_/Q _1354_/B gnd _1350_/Y vdd AND2X2
X_1548_ _1548_/A _1560_/B gnd _1553_/C vdd NAND2X1
X_1617_ _1612_/Y _1602_/B _1617_/C gnd _1740_/D vdd OAI21X1
X_1479_ _1267_/B gnd _1485_/B vdd INVX1
XBUFX2_insert22 arst_i gnd _1040_/R vdd BUFX2